13

 C     -0.461104    1.432340    0.063169
 C      0.860867    1.218216    0.040375
 C      1.435525   -0.145632   -0.042610
 O      2.633555   -0.335825   -0.063051
 C      0.458410   -1.290923   -0.100695
 C     -0.870352   -1.067906   -0.077351
 C     -1.424527    0.307725    0.006187
 O     -2.628724    0.491638    0.026453
 C      0.996416   -2.611955   -0.181098
 N      1.414573   -3.685955   -0.246195
 H     -0.891613    2.425606    0.123680
 H      1.585035    2.024098    0.080934
 H     -1.592951   -1.874738   -0.118097
