20

 C     -2.517680    0.618619   -0.299180
 C     -1.323603    1.418396    0.239453
 C     -0.021517    0.681834    0.054082
 C     -0.000766   -0.676286    0.093356
 C     -1.237813   -1.438709    0.242961
 C     -2.425766   -0.841070    0.064543
 C      1.289846   -1.423488   -0.004235
 O      1.328675   -2.641851    0.054651
 C      2.535455   -0.633378   -0.165338
 C      2.508531    0.703421   -0.199408
 C      1.232294    1.457600   -0.083890
 O      1.234836    2.681108   -0.102188
 H     -2.565855    0.697617   -1.396008
 H     -3.450844    1.050323    0.071999
 H     -1.262101    2.404771   -0.222392
 H     -1.453683    1.595082    1.317388
 H     -1.153029   -2.499230    0.443626
 H     -3.340938   -1.422403    0.116630
 H      3.452348   -1.206841   -0.244752
 H      3.403170    1.306303   -0.310509
