24

 S      1.516261   -1.682026   -0.905053
 S      1.516395    1.681961   -0.904920
 O     -1.133298   -2.676045   -0.380500
 O     -1.133217    2.676113   -0.380766
 N      4.698997   -2.075297    0.861433
 N      4.698997    2.075095    0.861534
 C     -2.382951   -0.702127    0.052345
 C     -2.382896    0.702297    0.052417
 C      0.096717   -0.673589   -0.533615
 C      0.096771    0.673616   -0.533550
 C     -1.150354   -1.464134   -0.279990
 C     -1.150194    1.464251   -0.279659
 C     -3.555325   -1.398469    0.352566
 C     -3.555238    1.398697    0.352631
 C     -4.717670   -0.697980    0.661007
 C     -4.717628    0.698266    0.661033
 C      2.809077   -0.677126   -0.196814
 C      2.809133    0.676900   -0.196766
 C      3.855924   -1.429619    0.404594
 C      3.856044    1.429258    0.404698
 H     -3.537027   -2.481109    0.340795
 H     -3.536861    2.481337    0.340953
 H     -5.625416   -1.239622    0.900033
 H     -5.625338    1.239954    0.900093
