14

 O     -0.000135    2.105627    0.000001
 O      0.000264   -3.224814   -0.000085
 N     -3.495262    1.427586    0.000169
 N      3.495109    1.428083   -0.000270
 C     -1.276956    0.105220    0.000043
 C      1.276986    0.105410   -0.000136
 C     -0.000044    0.898122   -0.000027
 C     -1.268565   -1.242199    0.000006
 C      1.268796   -1.242010   -0.000170
 C      0.000173   -2.007561   -0.000080
 C     -2.497873    0.846836    0.000153
 C      2.497792    0.847209   -0.000200
 H     -2.182323   -1.824917    0.000051
 H      2.182641   -1.824592   -0.000252
