20

 C      1.727743    0.115226    0.122199
 C      1.095509    0.208825   -1.227781
 C      0.637349    1.320218   -1.853725
 C      0.101330    0.943282   -3.152434
 C      0.225671   -0.400749   -3.334668
 C      0.873059   -0.992720   -2.119756
 C     -0.225938   -1.074542   -4.549159
 O     -0.124140   -2.280955   -4.734078
 C     -0.838496   -0.190490   -5.589290
 C     -0.966773    1.133421   -5.422465
 C     -0.505366    1.818397   -4.182613
 O     -0.624751    3.023645   -4.036190
 H      1.155770   -0.546559    0.781945
 H      1.794097    1.095122    0.597990
 H      2.738744   -0.302000    0.057527
 H      0.655356    2.332040   -1.472621
 H      0.236820   -1.749192   -1.643478
 H      1.811640   -1.505830   -2.364044
 H     -1.172682   -0.694498   -6.489890
 H     -1.410864    1.774027   -6.176648
