19

 C      1.082474    0.160985   -0.044360
 C      0.610193   -0.640766    1.134643
 C      0.883433   -1.960597    1.279006
 C      0.394943   -2.721446    2.466668
 O      0.628208   -3.904882    2.615817
 C     -0.409181   -1.980288    3.498277
 C     -0.675713   -0.672026    3.347653
 C     -0.188810    0.080794    2.166721
 O     -0.452469    1.268427    2.067833
 C     -0.871916   -2.717831    4.631284
 N     -1.255876   -3.294097    5.554999
 C      1.683422   -2.734570    0.269823
 H      0.753313    1.194976    0.039556
 H      0.695703   -0.255971   -0.979489
 H      2.174535    0.144478   -0.114842
 H     -1.251868   -0.106519    4.070571
 H      1.203445   -2.703236   -0.713277
 H      2.682353   -2.303139    0.152220
 H      1.786139   -3.774103    0.574839
