27

 C      0.991156   -0.133965    0.014318
 C      0.676171    0.682316   -1.213667
 C      0.875893    2.061487   -1.236991
 C      0.583687    2.817772   -2.376076
 C      0.078777    2.185875   -3.524367
 C     -0.123877    0.801473   -3.507007
 C      0.170555    0.064564   -2.369899
 C     -0.245019    2.955080   -4.757390
 O     -0.683913    2.404221   -5.754766
 C     -0.011888    4.429817   -4.727556
 C     -0.303911    5.186673   -5.866360
 C     -0.095976    6.560916   -5.864632
 C      0.406348    7.192605   -4.723502
 C      0.699511    6.448477   -3.586886
 C      0.493532    5.065373   -3.579392
 C      0.817298    4.291525   -2.344444
 O      1.255933    4.844042   -1.348452
 H      0.099633   -0.652939    0.379477
 H      1.372257    0.492390    0.822152
 H      1.742752   -0.898436   -0.205239
 H      1.264064    2.579481   -0.367760
 H     -0.513652    0.325403   -4.398367
 H      0.007804   -1.008688   -2.372227
 H     -0.692204    4.676445   -6.739158
 H     -0.324018    7.143183   -6.750230
 H      0.567869    8.264642   -4.724070
 H      1.089480    6.916889   -2.691707
