14

 C     -0.485721    1.392217    0.064172
 C      0.839134    1.201441    0.071350
 C      1.436519   -0.148162   -0.019070
 O      2.635856   -0.323799   -0.013187
 C      0.487847   -1.316861   -0.120731
 C     -0.857155   -1.123203   -0.128019
 C     -1.438609    0.265855   -0.034746
 O     -2.638763    0.435698   -0.041739
 C     -1.784807   -2.199972   -0.222714
 N     -2.540526   -3.069411   -0.299056
 C      1.075042   -2.611731   -0.207228
 N      1.555848   -3.659032   -0.276858
 H     -0.935019    2.376582    0.129848
 H      1.547214    2.019126    0.143288
