15

 C      2.213487   -0.701807   -0.022292
 C      2.259270    0.637874   -0.019655
 C      1.031277    1.485030   -0.005934
 O      1.097869    2.703424   -0.003674
 C     -0.231566    0.737121    0.004251
 C     -0.305714   -0.642530    0.001836
 C      0.929440   -1.458517   -0.011619
 O      0.914520   -2.677757   -0.013936
 C     -1.641864   -1.126087    0.013242
 C     -2.550238   -0.103086    0.024013
 S     -1.803250    1.460045    0.020526
 H      3.111818   -1.309281   -0.032264
 H      3.195880    1.184751   -0.027349
 H     -1.899695   -2.175829    0.013338
 H     -3.627714   -0.173900    0.033898
