17

 C      0.722625    1.473129   -0.521950
 C     -0.026234    2.011676    0.669717
 O     -1.101511    2.561489    0.558634
 C      0.598326    1.914820    2.054646
 C      0.268970    2.850885    2.964133
 C      0.838648    2.877456    4.334613
 O      0.527998    3.749698    5.127935
 C      1.795929    1.804868    4.692705
 C      2.120623    0.855621    3.806694
 C      1.548879    0.822590    2.434708
 O      1.841542   -0.086368    1.675660
 H      0.727947    0.381320   -0.492767
 H      1.770073    1.786102   -0.504648
 H      0.234092    1.824818   -1.429715
 H     -0.436319    3.637367    2.718116
 H      2.202337    1.835581    5.697490
 H      2.808556    0.049648    4.037419
