16

 C     -2.453364    0.656166    0.000115
 C     -2.441581   -0.684364   -0.000575
 C     -1.187075   -1.475887   -0.001157
 O     -1.208239   -2.688168   -0.002467
 C      0.103398   -0.693367   -0.000942
 N      1.248512   -1.384428   -0.001392
 C      2.368285   -0.673188   -0.001177
 C      2.355951    0.729554   -0.000569
 N      1.223846    1.420992   -0.000111
 C      0.091060    0.709904   -0.000271
 C     -1.212968    1.469618    0.000351
 O     -1.255446    2.681340    0.000625
 H     -3.377651    1.223717    0.000510
 H     -3.355749   -1.268073   -0.000798
 H      3.305519   -1.221824   -0.001520
 H      3.283392    1.294586   -0.000491
