26

 C      1.139830    0.326460   -0.014707
 C     -0.045919    0.114163   -0.019040
 C     -1.471120    0.049824   -0.025078
 C     -2.222795   -1.152137   -0.027904
 C     -3.631307   -1.078994   -0.034096
 C     -4.282909    0.155108   -0.037330
 C     -3.544119    1.331512   -0.034511
 C     -2.156691    1.278409   -0.028523
 C     -4.486481   -2.308229   -0.037596
 O     -5.703868   -2.223760   -0.042726
 C     -3.802389   -3.627262   -0.034231
 C     -4.569036   -4.797479   -0.037433
 C     -3.944920   -6.038317   -0.034376
 C     -2.549092   -6.119756   -0.028060
 C     -1.781462   -4.961475   -0.024800
 C     -2.401175   -3.707568   -0.027891
 C     -1.542854   -2.482749   -0.024212
 O     -0.328996   -2.583384   -0.017364
 H      2.194984    0.451453   -0.010463
 H     -5.365432    0.164722   -0.042045
 H     -4.046404    2.291994   -0.036986
 H     -1.573955    2.191233   -0.026381
 H     -5.648301   -4.708339   -0.042289
 H     -4.540853   -6.943879   -0.036879
 H     -2.063253   -7.088919   -0.025691
 H     -0.699443   -5.002520   -0.019867
