21

 C      2.474705   -0.753268   -0.389720
 C      1.259647   -1.502207    0.179703
 C     -0.002532   -0.688489    0.074401
 C      0.011361    0.661321    0.023215
 C      1.277584    1.472803    0.103563
 C      2.564137    0.657689    0.154396
 O      3.588363    1.133479    0.588347
 C     -1.261853    1.433005   -0.093596
 O     -1.254985    2.651379   -0.166555
 C     -2.539639    0.680183   -0.119967
 C     -2.555915   -0.655140   -0.054140
 C     -1.297134   -1.434354    0.039022
 O     -1.324844   -2.653791    0.084967
 H      2.366167   -0.675851   -1.479778
 H      3.409823   -1.273991   -0.181348
 H      1.117519   -2.457392   -0.329051
 H      1.432345   -1.755384    1.233563
 H      1.254245    2.137994    0.972055
 H      1.339387    2.148684   -0.759001
 H     -3.440482    1.278999   -0.195481
 H     -3.471297   -1.236088   -0.071684
