19

 C      1.025905   -0.048755    0.035683
 C      0.454239    0.405807    1.342820
 C     -0.154381   -0.408816    2.220958
 C     -0.709341    0.064530    3.502567
 O     -1.255398   -0.696524    4.278612
 C     -0.575263    1.525720    3.815821
 C      0.030419    2.385951    2.961562
 C      0.581941    1.859700    1.665785
 O      1.128694    2.622932    0.889195
 C      0.200098    3.850048    3.205975
 C     -1.120295    1.962183    5.063206
 N     -1.555358    2.331581    6.067207
 H      0.558025    0.486455   -0.795084
 H      0.881116   -1.120472   -0.102356
 H      2.094147    0.178611   -0.016217
 H     -0.273041   -1.471059    2.034972
 H     -0.272064    4.420906    2.401480
 H     -0.224582    4.152398    4.161724
 H      1.261301    4.113166    3.180230
