14

 C      2.183800   -0.681902   -0.037421
 C      2.168662    0.662757   -0.035686
 C      0.924824    1.484225   -0.003793
 O      0.954027    2.695198   -0.003130
 C     -0.327528    0.672583    0.026430
 N     -1.546736    1.145548    0.057162
 O     -2.366132    0.011203    0.076302
 C     -1.615810   -1.096603    0.056556
 C     -0.298134   -0.753427    0.024272
 C      0.951959   -1.523463   -0.007571
 O      1.007301   -2.739787   -0.010097
 H      3.116630   -1.235192   -0.061228
 H      3.088718    1.237066   -0.058028
 H     -2.140702   -2.038555    0.068591
