18

 C      2.381993   -0.696091   -0.359816
 C      2.393759    0.643517    0.356778
 O      1.230932    1.404737    0.004466
 C      0.091075    0.672559   -0.010376
 C      0.079634   -0.686419    0.009959
 O      1.207048   -1.437646   -0.005835
 C     -1.193093   -1.448338    0.048842
 O     -1.214222   -2.664765    0.082262
 C     -2.450795   -0.653151    0.031701
 C     -2.439592    0.681936   -0.029130
 C     -1.168696    1.455804   -0.048377
 O     -1.169358    2.672423   -0.081298
 H      2.394836   -0.548326   -1.444681
 H      3.232521   -1.312224   -0.068852
 H      2.405661    0.495558    1.441623
 H      3.254095    1.245289    0.064589
 H     -3.366029   -1.233399    0.059936
 H     -3.344960    1.277527   -0.055951
