21

 C     -1.090959    0.019676   -1.652833
 C      0.357919   -0.327580   -1.261726
 C      0.825152   -1.632549   -1.847105
 C      1.643826   -1.717372   -2.910025
 C      2.062541   -3.012172   -3.488086
 O      2.805032   -3.061385   -4.458577
 C      1.548375   -4.245392   -2.855264
 C      0.735976   -4.217309   -1.785195
 C      0.333782   -2.895166   -1.202428
 O     -0.375074   -2.851993   -0.209796
 C      0.197772   -5.442939   -1.111946
 H     -1.195743    0.100777   -2.737998
 H     -1.380077    0.977170   -1.212375
 H     -1.786698   -0.740310   -1.293164
 H      1.030083    0.467526   -1.595451
 H      0.426575   -0.384416   -0.171968
 H      2.038653   -0.834602   -3.403229
 H      1.871042   -5.176543   -3.309764
 H     -0.895769   -5.434376   -1.112537
 H      0.547591   -6.347711   -1.610312
 H      0.503389   -5.471475   -0.062431
