14

 C     -0.417282    1.414670   -0.069354
 C      0.849870    1.072118    0.192953
 C      1.284835   -0.345040    0.275726
 O      2.452401   -0.642701    0.411743
 C      0.205244   -1.386124    0.157404
 C     -1.065307   -1.039498   -0.103314
 C     -1.466229    0.384603   -0.258098
 O     -2.620301    0.681124   -0.510573
 S      0.657756   -3.120747    0.175082
 C      1.531614   -3.229004    1.632886
 N      2.102998   -3.413375    2.622667
 H     -0.739091    2.446342   -0.155790
 H      1.637479    1.803687    0.334466
 H     -1.861507   -1.768206   -0.205229
