22

 C      1.109715    0.028056    0.005556
 C      0.648872    1.452271   -0.057942
 C      1.465351    2.510952    0.093397
 C      0.992701    3.916542    0.029023
 O      1.762287    4.852831    0.189579
 C     -0.447313    4.118938   -0.238125
 C     -1.284558    3.076769   -0.392576
 C     -0.819846    1.677881   -0.303810
 O     -1.586952    0.734998   -0.422966
 C     -2.707310    3.519218   -0.611487
 C     -2.553963    5.040422   -0.889119
 C     -1.161625    5.440451   -0.326612
 H      0.880868   -0.492332   -0.928754
 H      0.579492   -0.513318    0.793943
 H      2.182707   -0.029147    0.192057
 H      2.528426    2.389465    0.275782
 H     -3.301510    3.318311    0.288235
 H     -3.192718    2.976723   -1.425910
 H     -2.571842    5.214846   -1.967892
 H     -3.363691    5.627168   -0.453027
 H     -0.630838    6.160874   -0.953067
 H     -1.229544    5.892411    0.670516
