24

 C      1.333643   -0.876664   -1.298005
 C      0.369395   -0.963330   -0.099251
 C      0.676473   -2.117701    0.813444
 C      1.311296   -1.989449    1.991698
 C      1.644824   -3.137518    2.860963
 O      2.257635   -2.971249    3.904946
 C      1.227186   -4.510303    2.421075
 C      0.592372   -4.638558    1.242813
 C      0.258810   -3.490484    0.373570
 O     -0.354049   -3.656746   -0.670388
 C      1.534284   -5.664681    3.333751
 C      0.569993   -5.751440    4.532456
 H      2.366290   -0.749927   -0.962359
 H      1.074461   -0.021679   -1.927363
 H      1.276587   -1.777013   -1.912099
 H      0.413766   -0.035902    0.478099
 H     -0.651589   -1.074004   -0.474549
 H      1.629667   -1.022191    2.368301
 H      0.274030   -5.605819    0.866196
 H      1.489975   -6.592095    2.756371
 H      2.555253   -5.553982    3.709088
 H     -0.462605   -5.878452    4.196760
 H      0.829343   -6.606295    5.161920
 H      0.626799   -4.851016    5.146464
