17

 C     -3.141227    0.833154   -0.198230
 C     -1.688699    0.484647   -0.092515
 C     -0.691903    1.388315   -0.095995
 C      0.743988    1.041109    0.038485
 O      1.583298    1.914119    0.134661
 C      1.088130   -0.420926    0.087203
 C      0.095152   -1.327814    0.113140
 C     -1.342158   -0.961958    0.032127
 O     -2.199122   -1.829055    0.060076
 C      2.495399   -0.926646    0.094686
 O      3.484486   -0.282692   -0.136064
 H     -3.280336    1.910870   -0.286425
 H     -3.687587    0.471637    0.677283
 H     -3.591317    0.341561   -1.065190
 H     -0.889519    2.453065   -0.167809
 H      0.299421   -2.393469    0.176284
 H      2.556455   -2.015073    0.314502
