17

 C     -1.048028    2.881844    0.241902
 C     -1.515941    1.783126    0.815747
 O     -1.467469    0.577172    0.132696
 C     -2.084513   -0.537954    0.579062
 C     -1.517486   -1.738142    0.338168
 C     -2.175519   -2.995283    0.713926
 O     -1.654990   -4.082380    0.511198
 C     -3.508591   -2.907068    1.372184
 C     -4.090371   -1.725117    1.603040
 C     -3.453004   -0.447968    1.204982
 O     -4.022063    0.617160    1.356350
 H     -0.666050    2.876569   -0.770897
 H     -1.050317    3.811122    0.793923
 H     -1.914427    1.740239    1.818963
 H     -0.550695   -1.808345   -0.145141
 H     -3.967049   -3.850210    1.647477
 H     -5.060796   -1.627305    2.076479
