19

 C     -0.782763   -1.254190   -0.037709
 C      0.628685   -1.226395   -0.574003
 C      1.676601   -0.880659    0.182106
 C      0.840021   -1.572701   -2.004144
 C      1.509570   -0.756077   -2.844414
 C      1.751566   -1.080361   -4.266494
 O      2.374612   -0.322134   -4.994011
 C      1.200717   -2.358231   -4.780277
 C      0.528573   -3.185394   -3.971657
 C      0.309557   -2.876877   -2.534774
 O     -0.263966   -3.680850   -1.819627
 H     -0.805959   -0.891400    0.991138
 H     -1.189441   -2.266404   -0.065614
 H     -1.440277   -0.619236   -0.640976
 H      2.689133   -0.889213   -0.204160
 H      1.547718   -0.603686    1.222607
 H      1.897201    0.200318   -2.511366
 H      1.378657   -2.573664   -5.828065
 H      0.117334   -4.130638   -4.308610
