23

 C      1.489374   -0.165932    0.071434
 C      0.438734   -1.240661   -0.309667
 C     -0.767233   -1.139808    0.588772
 C     -1.073651   -2.038406    1.521198
 C     -0.270931   -3.286344    1.752813
 C      0.737507   -3.541747    0.666553
 C      1.039002   -2.628342   -0.282799
 C      1.987899   -2.976677   -1.383846
 O      2.209979   -2.202984   -2.302877
 C      2.652020   -4.303610   -1.353026
 C      2.376550   -5.192515   -0.393773
 C      1.393231   -4.882989    0.672381
 O      1.133389   -5.709963    1.533029
 H      1.861143   -0.334355    1.085499
 H      1.033566    0.827373    0.039878
 H      2.329161   -0.177029   -0.624670
 H      0.140066   -1.032040   -1.343526
 H     -1.383189   -0.253025    0.466969
 H     -1.941017   -1.889289    2.157190
 H      0.242526   -3.239881    2.723771
 H     -0.924043   -4.161877    1.840212
 H      3.353316   -4.498858   -2.156791
 H      2.836621   -6.173283   -0.345311
