46

 O     -3.694993   -0.433692   -0.299568
 O      3.694983    0.433274   -0.300224
 O     -1.696211   -2.042579    0.487081
 O      1.696257    2.042957    0.484872
 C     -1.445061    0.283658    0.031433
 C      1.445083   -0.283746    0.031656
 C     -0.519517    1.347042    0.078284
 C      0.519541   -1.347079    0.079686
 C     -0.958769   -1.110461    0.221418
 C      0.958803    1.110576    0.220169
 C     -2.812980    0.592908   -0.134961
 C      2.812994   -0.593166   -0.134462
 C     -0.946330    2.671843    0.002786
 C      0.946349   -2.671959    0.005566
 C     -3.228642    1.923766   -0.229484
 C      3.228648   -1.924126   -0.227612
 C     -2.298803    2.953602   -0.151806
 C      2.298814   -2.953880   -0.148805
 C     -5.012332   -0.319032    0.110048
 C      5.012298    0.319206    0.109638
 C     -5.341967    0.092095    1.400792
 C      5.341887   -0.090391    1.400881
 C     -5.997628   -0.722927   -0.786371
 C      5.997618    0.722184   -0.787169
 C     -6.680645    0.113840    1.784818
 C      6.680541   -0.111552    1.785027
 C     -7.332642   -0.703721   -0.387099
 C      7.332604    0.703575   -0.387781
 C     -7.679662   -0.281553    0.895276
 C      7.679579    0.282914    0.895101
 H     -0.205924    3.458608    0.060560
 H      0.205946   -3.458662    0.064210
 H     -4.279373    2.140336   -0.373825
 H      4.279369   -2.140849   -0.371791
 H     -2.634592    3.981633   -0.228375
 H      2.634597   -3.981992   -0.224313
 H     -4.560349    0.379475    2.093507
 H      4.560254   -0.377049    2.093878
 H     -5.707006   -1.052292   -1.776444
 H      5.707031    1.050382   -1.777640
 H     -6.940696    0.429799    2.788797
 H      6.940552   -0.426323    2.789390
 H     -8.101884   -1.019131   -1.082840
 H      8.101863    1.018266   -1.083831
 H     -8.718842   -0.266780    1.202057
 H      8.718740    0.268602    1.201972
