21

 C      1.068648   -0.079830    0.265688
 C      0.504279    1.286486    0.024211
 C     -0.720943    1.517510   -0.471230
 C     -1.242942    2.880531   -0.696162
 O     -2.367458    3.038684   -1.150231
 C     -0.371359    4.048171   -0.358739
 C      0.868040    3.842631    0.144313
 C      1.379010    2.454430    0.363978
 O      2.497522    2.260652    0.815531
 C      1.792787    4.972442    0.503228
 C     -0.934433    5.419211   -0.602946
 H      0.352957   -0.853337   -0.015537
 H      1.336888   -0.205343    1.318200
 H      1.991355   -0.221396   -0.303652
 H     -1.399046    0.712428   -0.735313
 H      2.035342    5.573445   -0.379347
 H      1.325187    5.645641    1.228358
 H      2.719650    4.589572    0.926320
 H     -0.975013    5.997130    0.326030
 H     -0.306501    5.981872   -1.301166
 H     -1.939900    5.350091   -1.014664
