21

 O     -2.300983    0.110381   -0.345985
 O     -1.021796    2.434058   -0.185556
 O      1.942712   -2.241783   -0.086489
 C      1.127740    1.345327   -0.051584
 C     -0.281995    1.331746   -0.159250
 C     -0.877915    0.053254   -0.239250
 C      1.848765    0.148450   -0.029055
 C     -0.170498   -1.142597   -0.217688
 C      1.233823   -1.112437   -0.109960
 C      1.816325    2.682126    0.037060
 C     -3.013182   -1.117009   -0.433363
 H      2.931744    0.180053    0.054230
 H     -0.658667   -2.107065   -0.280968
 H      1.461855    3.250785    0.903081
 H      1.594490    3.298100   -0.840651
 H      2.900099    2.563673    0.116284
 H     -4.072061   -0.864177   -0.507220
 H     -2.848174   -1.729150    0.458203
 H     -2.712575   -1.681176   -1.321159
 Li    -2.669518    1.958623   -0.324219
 Li     2.918697   -3.514993   -0.046310
