21

 C      1.453465    1.604246    0.016460
 C      2.608642    0.577904    0.014562
 C      1.943769   -0.791714    0.005955
 O      2.584109   -1.859492    0.002476
 C      0.513671   -0.618981    0.002802
 C      0.201115    0.760300    0.008769
 C     -1.119136    1.208311    0.007272
 O     -1.439121    2.494359    0.013647
 C     -2.107236    0.191981   -0.000315
 C     -1.810841   -1.166709   -0.006259
 C     -0.481448   -1.634436   -0.004978
 O     -0.175744   -2.922384   -0.010990
 H      1.484307    2.255670    0.896349
 H      1.489209    2.264402   -0.856714
 H      3.260479    0.660809   -0.859879
 H      3.255695    0.652154    0.893319
 H     -3.147115    0.506061   -0.001467
 H     -2.616994   -1.893312   -0.011985
 Li     1.603905   -3.426029   -0.008313
 Li    -1.876605    4.049637    0.021244
 Li    -0.833271   -4.571542   -0.022780
