20

 C      1.011030   -0.065087    0.175204
 C      0.528646    1.364956    0.147516
 C      1.451202    2.418101    0.335244
 C      1.092729    3.780020    0.325378
 O      1.884756    4.829306    0.491233
 C     -0.279751    3.945010    0.107269
 C     -1.242999    2.961566   -0.084632
 C     -0.847953    1.602794   -0.068153
 O     -1.719494    0.616183   -0.245605
 C     -2.489337    3.674150   -0.263043
 C     -2.225663    4.996624   -0.173207
 O     -0.870519    5.223991    0.056158
 H      0.799319   -0.579641   -0.770353
 H      0.516192   -0.641490    0.966764
 H      2.088185   -0.113788    0.349032
 H      2.498032    2.179486    0.497172
 H     -3.464299    3.245920   -0.437396
 H     -2.840280    5.878385   -0.242345
 Li     0.801207    6.194228    0.362361
 Li    -2.581021   -0.731916   -0.434333
