17

 C      2.161273   -0.757809   -0.021679
 C      2.232053    0.644628   -0.019209
 C      1.088621    1.453417   -0.006724
 O      1.121095    2.779859   -0.003991
 C     -0.132151    0.752215    0.003248
 C     -0.232953   -0.655578    0.001051
 C      0.945391   -1.451539   -0.011875
 O      0.879030   -2.778395   -0.014103
 C     -1.604448   -1.089436    0.013041
 C     -2.497590   -0.066856    0.023758
 S     -1.722074    1.507401    0.019968
 H      3.078587   -1.338853   -0.031542
 H      3.200699    1.135273   -0.027159
 H     -1.894415   -2.132101    0.013444
 H     -3.575944   -0.125701    0.033805
 Li     0.868359    4.371465    0.002052
 Li     0.862347   -4.385278   -0.017396
