20

 C      0.224590    1.054535   -0.411195
 C      0.043688    2.037008    0.718760
 O     -0.586834    3.095611    0.460890
 C      0.570742    1.815835    2.051642
 C      0.003948    2.601715    3.106962
 C      0.532020    2.664558    4.407562
 O      0.046510    3.443813    5.336003
 C      1.655234    1.810213    4.646812
 C      2.193760    1.015060    3.658533
 C      1.695150    0.986473    2.328148
 O      2.307384    0.255784    1.419052
 H      0.222092    0.023038   -0.060403
 H      1.189657    1.239714   -0.896124
 H     -0.565968    1.223628   -1.143765
 H     -0.990353    3.021523    2.963562
 H      2.073039    1.801017    5.648432
 H      3.052527    0.386648    3.875462
 Li    -0.407388    4.481209    1.696837
 Li    -0.324944    5.061916    4.752026
 Li     3.243148   -0.723710    0.518978
