18

 C     -2.575919    0.687704   -0.000306
 C     -2.563544   -0.718035   -0.000950
 C     -1.388544   -1.485369   -0.001243
 O     -1.345642   -2.796812   -0.002582
 C     -0.174376   -0.720388   -0.001033
 N      1.014637   -1.383678   -0.001488
 C      2.136970   -0.678489   -0.001312
 C      2.124566    0.730884   -0.000711
 N      0.989996    1.416212   -0.000312
 C     -0.187161    0.732105   -0.000441
 C     -1.414608    1.475602   -0.000193
 O     -1.394795    2.787595    0.001624
 H     -3.527513    1.209055    0.000060
 H     -3.505810   -1.256062   -0.001101
 H      3.078389   -1.218113   -0.001592
 H      3.056342    1.286993   -0.000589
 Li     0.334781   -3.268856   -0.003330
 Li     0.277202    3.288618    0.002334
