21

 C      1.118417   -0.068028    0.388315
 C      0.617400    1.299097   -0.002220
 C     -0.589773    1.448706   -0.692190
 C     -1.109509    2.695642   -1.083641
 O     -2.251093    2.857010   -1.737262
 C     -0.311387    3.807917   -0.724232
 C      0.891340    3.702844   -0.040310
 C      1.382313    2.437147    0.336642
 O      2.537046    2.323921    0.993740
 O     -0.869500    5.055501   -1.137493
 C     -0.149580    6.241653   -0.827966
 H      0.426337   -0.847797    0.061785
 H      1.238840   -0.157324    1.475195
 H      2.099003   -0.279526   -0.056094
 H     -1.175850    0.571993   -0.951362
 H      1.483757    4.570417    0.223042
 H     -0.034085    6.357174    0.253871
 H      0.838022    6.233020   -1.298735
 H     -0.730494    7.077355   -1.221093
 Li    -2.468378    4.546577   -1.994197
 Li     3.889854    1.961931    1.781820
