23

 C      1.011920   -0.193914   -0.041904
 C      0.552831    1.165631    0.426817
 C      1.135606    2.342330   -0.102548
 C      0.735127    3.653500    0.307261
 O      1.185461    4.816629   -0.153096
 C     -0.244038    3.619217    1.290436
 C     -0.804199    2.488195    1.799249
 C     -0.482936    1.194102    1.413663
 O     -1.122666    0.156084    1.943608
 O     -1.855004    2.847415    2.705890
 C     -1.582880    4.227109    2.987553
 O     -0.905460    4.764633    1.843391
 C      2.225136    2.255593   -1.143807
 H      0.840730   -0.332796   -1.115746
 H      0.466147   -0.970389    0.494631
 H      2.084126   -0.342275    0.129803
 H     -2.519304    4.759902    3.140958
 H     -0.914399    4.286576    3.855674
 H      3.087880    1.684352   -0.782608
 H      1.876189    1.759293   -2.056861
 H      2.561502    3.258687   -1.407070
 Li     0.221795    5.989635    0.716104
 Li    -2.295206    0.908024    3.001858
