28

 C      1.193195    0.315591   -0.013547
 C      0.006022    0.046352   -0.018352
 C     -1.421910   -0.047636   -0.024580
 C     -2.179647   -1.279961   -0.027480
 C     -3.628420   -1.166035   -0.033930
 C     -4.218919    0.125017   -0.037011
 C     -3.468219    1.273208   -0.034102
 C     -2.060798    1.185314   -0.027848
 C     -4.461627   -2.314378   -0.037175
 O     -5.780443   -2.199410   -0.043501
 C     -3.840871   -3.590291   -0.034150
 C     -4.613397   -4.788037   -0.037318
 C     -4.022888   -6.025566   -0.034404
 C     -2.607213   -6.137954   -0.028072
 C     -1.830730   -5.007032   -0.024884
 C     -2.408142   -3.706499   -0.027755
 C     -1.562125   -2.556906   -0.024290
 O     -0.258601   -2.699020   -0.018326
 H      2.195642    0.672835   -0.009233
 H     -5.300383    0.177451   -0.041810
 H     -3.943565    2.247617   -0.036554
 H     -1.462798    2.089023   -0.025537
 H     -5.692961   -4.697901   -0.042140
 H     -4.634411   -6.922156   -0.036919
 H     -2.144510   -7.119291   -0.025786
 H     -0.750054   -5.071937   -0.020072
 Li    -7.394601   -2.218111   -0.051194
 Li     1.189806   -1.884102   -0.012187
