24

 C      2.451280   -0.923619   -0.159197
 C      1.280205   -1.626298    0.599267
 C      0.013688   -0.814394    0.415175
 C      0.168176    0.576575    0.553996
 C      1.510360    1.049809    1.092131
 C      2.301247    0.585581   -0.086564
 O      2.604259    1.357447   -1.002816
 C     -0.727125    1.498408   -0.019455
 O     -0.358869    2.776309   -0.204793
 C     -1.948104    0.966749   -0.472621
 C     -2.177239   -0.405491   -0.469662
 C     -1.195262   -1.342688   -0.072247
 O     -1.399211   -2.649171   -0.196483
 H      2.473401   -1.213205   -1.211896
 H      3.423463   -1.192187    0.274080
 H      1.137025   -2.633530    0.206227
 H      1.539164   -1.739537    1.659855
 H      1.776564    0.538286    2.019719
 H      1.542773    2.128961    1.234175
 H     -2.692423    1.641813   -0.882392
 H     -3.116830   -0.791956   -0.852731
 Li     1.349922    2.889120   -1.043385
 Li    -0.733811    4.479467   -0.322798
 Li    -1.857366   -4.188675   -0.365780
