22

 C      1.244632   -1.500166    0.068956
 C      2.410410   -0.631243   -0.388790
 O      2.411707    0.617745    0.291532
 C      1.281475    1.412645   -0.058337
 C     -0.032293    0.666338   -0.035873
 C     -0.056268   -0.731740    0.035834
 C     -1.285345   -1.429933    0.079665
 O     -1.312900   -2.759829    0.171647
 C     -2.467003   -0.674279    0.024495
 C     -2.438889    0.715535   -0.062747
 C     -1.225845    1.418605   -0.098022
 O     -1.184875    2.749991   -0.184843
 H      1.167999   -2.385497   -0.573733
 H      1.443891   -1.871076    1.083789
 H      2.353714   -0.460194   -1.476180
 H      3.373575   -1.098487   -0.168912
 H      1.260419    2.234725    0.661642
 H      1.447583    1.860186   -1.054709
 H     -3.416034   -1.201704    0.052509
 H     -3.364963    1.281671   -0.102671
 Li    -1.362616   -4.355699    0.332511
 Li    -1.155441    4.351928   -0.293332
