21

 C      0.947100    0.174278    0.042240
 C      0.540435   -1.267722   -0.104098
 C      1.415423   -2.312602    0.143009
 C      1.080314   -3.686078    0.019385
 O      1.985495   -4.625647    0.277386
 C     -0.217920   -4.016063   -0.377930
 C     -1.122278   -2.953367   -0.633611
 C     -0.791105   -1.561148   -0.510912
 O     -1.672541   -0.628953   -0.761828
 C     -2.459526   -3.124789   -1.040125
 N     -3.573468   -3.011982   -1.374544
 C     -0.623658   -5.456925   -0.523942
 H      0.317255    0.688502    0.775122
 H      0.823350    0.715870   -0.900953
 H      1.989661    0.258496    0.358417
 H      2.432476   -2.086515    0.453777
 H     -1.664455   -5.559136   -0.839867
 H      0.004786   -5.969673   -1.260932
 H     -0.503340   -5.997128    0.421949
 Li     3.094631   -5.749753    0.593955
 Li    -3.317965   -0.990111   -1.264472
