18

 C      0.955286    0.083541   -0.013832
 C      0.689835    1.050949   -1.134625
 C      0.361640    0.605216   -2.440366
 C      0.097470    1.482445   -3.551484
 O     -0.199964    1.011278   -4.731093
 C      0.186726    2.863598   -3.258056
 C      0.506297    3.303550   -1.986930
 C      0.764275    2.429061   -0.900651
 O      1.067501    2.911212    0.300902
 C      0.251381   -0.746450   -2.820263
 N      0.103654   -1.767621   -3.368289
 H      0.862631   -0.955464   -0.338044
 H      0.256647    0.243423    0.815065
 H      1.963085    0.222906    0.393166
 H     -0.003406    3.566609   -4.061486
 H      0.568432    4.369636   -1.787872
 Li    -0.305004   -0.707765   -5.071773
 Li     1.433991    3.506492    1.752408
