19

 C      1.428272    1.346602   -0.128340
 C      2.335439    0.119149    0.114804
 O      1.515951   -1.059978   -0.140148
 C      0.163997   -0.629330   -0.050170
 C      0.047488    0.743774   -0.018161
 C     -1.228816    1.327772    0.045067
 O     -1.402156    2.648497    0.064891
 C     -2.308500    0.417460    0.079836
 C     -2.141692   -0.971756    0.041766
 C     -0.866865   -1.577323   -0.031110
 O     -0.598599   -2.875171   -0.079805
 H      1.620754    2.129155    0.610774
 H      1.598983    1.783732   -1.120105
 H      3.203185    0.065970   -0.543420
 H      2.665663    0.071822    1.157236
 H     -3.311641    0.830008    0.136916
 H     -3.009959   -1.622368    0.070017
 Li    -1.800388    4.205815    0.082501
 Li     1.145829   -2.933233   -0.181881
