18

 C     -2.459787    0.753733   -0.000212
 C     -2.530253   -0.651124   -0.000781
 C     -1.397030   -1.476951   -0.001208
 O     -1.425779   -2.788458   -0.001711
 C     -0.145019   -0.775415   -0.001155
 N      1.012193   -1.520630   -0.001658
 C      2.164674   -0.878379   -0.001563
 N      2.341477    0.460154   -0.000949
 C      1.233831    1.190179   -0.000492
 C     -0.065944    0.656372   -0.000556
 C     -1.254753    1.455169   -0.000022
 O     -1.189234    2.777588    0.000629
 H     -3.381153    1.328621    0.000119
 H     -3.501060   -1.135947   -0.000872
 H      3.069880   -1.479701   -0.001821
 H      1.361064    2.268998   -0.000025
 Li     0.239671   -3.334650   -0.002127
 Li    -1.272285    4.392141    0.001449
