19

 C      2.366170   -0.444993   -0.000758
 C      1.244601   -1.247875   -0.000898
 C     -0.045506   -0.682304   -0.000645
 C     -0.129779    0.754376   -0.000241
 C     -1.398258    1.444767   -0.000004
 O     -1.441383    2.757041    0.000368
 C     -2.526543    0.618589   -0.000262
 C     -2.444741   -0.786402   -0.000633
 C     -1.236852   -1.477367   -0.000803
 O     -1.168246   -2.804896   -0.001137
 N      1.003094    1.532008   -0.000122
 C      2.193227    0.951286   -0.000367
 H      3.365134   -0.864596   -0.000944
 H      1.331837   -2.328271   -0.001208
 H     -3.499263    1.099249   -0.000133
 H     -3.361870   -1.368680   -0.000792
 H      3.058968    1.608841   -0.000234
 Li     0.209500    3.323570    0.000564
 Li    -1.320344   -4.410138   -0.001523
