19

 C      1.785890   -0.959074    0.015465
 C      0.311625   -0.680290    0.008753
 C      0.110257    0.694208    0.009696
 C      1.442599    1.384159    0.017076
 O      2.424233    0.331206    0.020623
 C     -1.170798    1.265702    0.004307
 O     -1.350015    2.586073    0.005206
 C     -2.243387    0.353268   -0.002277
 C     -2.040909   -1.028804   -0.003227
 C     -0.751663   -1.595230    0.002352
 O     -0.544600   -2.911521    0.001370
 H      2.117118   -1.518921   -0.870788
 H      2.108542   -1.521716    0.903101
 H      1.590472    2.014514    0.905532
 H      1.599143    2.016684   -0.868357
 H     -3.254433    0.750436   -0.006708
 H     -2.895540   -1.699293   -0.008393
 Li    -1.573211    4.176927    0.006182
 Li    -0.302082   -4.499545    0.000225
