20

 C      0.725972   -0.037202   -0.153834
 C      0.548099    0.830961   -1.367830
 C      0.217229    0.276815   -2.595285
 C      0.037633    1.041121   -3.768083
 O     -0.277142    0.455884   -4.909656
 C      0.215171    2.455304   -3.640517
 C      0.554156    3.011819   -2.378144
 C      0.726600    2.245058   -1.235938
 O      1.043016    2.773948   -0.063429
 C      0.069034    3.373907   -4.732626
 O     -0.221072    3.121670   -5.916285
 H      0.562776   -1.090531   -0.388584
 H      0.028605    0.254916    0.638472
 H      1.733682    0.075099    0.260056
 H      0.086629   -0.798662   -2.673802
 H      0.684819    4.087424   -2.301791
 H      0.239420    4.432318   -4.468561
 Li    -0.620097   -1.135591   -5.637881
 Li     1.429258    3.483197    1.337127
 Li    -0.519758    1.402702   -6.463023
