12

 C      0.529534   -1.284785    0.028432
 C     -0.703701   -0.661130    0.069046
 C     -0.432920    0.861699    0.073250
 C      0.939750    1.022215    0.034830
 C      1.546077   -0.275502    0.007039
 O      2.838225   -0.505156   -0.032241
 C     -1.669296    0.295969    0.104447
 O     -2.942685    0.522280    0.142529
 H      0.723886   -2.349320    0.014376
 H      1.489170    1.954560    0.026300
 Li     4.422104   -0.786676   -0.080386
 Li    -4.536174    0.805480    0.190160
