16

 O      1.235875    1.199687    0.000000
 O      6.228145   -1.199681    0.000000
 N      2.909770    3.819477    0.000000
 N      4.554441   -3.819397    0.000000
 C      3.625091    1.357462    0.000000
 C      3.838931   -1.357469    0.000000
 C      2.392589    0.599951    0.000000
 C      5.071433   -0.599961    0.000000
 C      2.556612   -0.795756    0.000000
 C      4.907409    0.795750    0.000000
 C      3.369566    2.749859    0.000000
 C      4.094456   -2.749860    0.000000
 H      1.674080   -1.423558    0.000000
 H      5.789942    1.423550    0.000000
 Li     1.027727    2.943770    0.000000
 Li     6.436392   -2.943820    0.000000
