20

 O      2.764244   -0.563976    0.022053
 O     -2.764240   -0.563970   -0.022159
 C      0.704525    0.677288    0.012638
 C     -0.704522    0.677287   -0.012602
 C      1.428131   -0.538873    0.015221
 C     -1.428128   -0.538873   -0.015120
 C      1.462032    1.984169    0.034171
 C     -1.462034    1.984164   -0.034200
 C      0.694396   -1.736730    0.007443
 C     -0.694393   -1.736730   -0.007500
 H      1.065545    2.674498    0.786166
 H      1.411695    2.505427   -0.931245
 H      2.514198    1.804022    0.256376
 H     -1.411763    2.505431    0.931215
 H     -2.514186    1.804011   -0.256468
 H     -1.065503    2.674488   -0.786175
 H      1.243099   -2.674252    0.012109
 H     -1.243095   -2.674252   -0.012282
 Li     4.361384   -0.696513    0.006415
 Li    -4.361384   -0.696475   -0.006775
