23

 C      1.007487    0.217301    0.042609
 C      0.536951   -1.168493   -0.315867
 C     -0.403594   -1.377530   -1.345502
 C     -0.897255   -2.632575   -1.745943
 O     -1.786033   -2.768133   -2.726589
 C     -0.379302   -3.740366   -1.029455
 C      0.546965   -3.487871   -0.021221
 C      1.063550   -2.263095    0.408649
 O      1.949621   -2.207370    1.395911
 O      0.952471   -4.693694    0.581231
 C      0.246240   -5.694858   -0.088625
 C     -0.556420   -5.183981   -1.051491
 C     -1.447808   -5.979848   -1.954308
 H      0.790325    0.448559    1.090779
 H      0.530256    0.973333   -0.585883
 H      2.093202    0.306267   -0.069796
 H     -0.783801   -0.509448   -1.877946
 H      0.434033   -6.702012    0.245385
 H     -1.181148   -5.821060   -3.002994
 H     -1.375179   -7.049317   -1.739932
 H     -2.491814   -5.676194   -1.836578
 Li    -2.851581   -2.698760   -3.930956
 Li     2.173342   -3.881118    1.851387
