18

 C      0.898246    0.288357    0.032392
 C     -0.305781    0.106430   -0.030183
 C     -1.714591    0.039160   -0.097095
 C     -2.421206   -1.209412   -0.183811
 C     -3.839383   -1.247379   -0.249870
 O     -4.493799   -2.376402   -0.328945
 C     -4.510234    0.012238   -0.225219
 C     -3.834834    1.205680   -0.142343
 C     -2.410881    1.276802   -0.074597
 O     -1.779914    2.419113    0.004085
 C     -1.754885   -2.454067   -0.208009
 C     -1.292482   -3.581929   -0.236225
 H      1.961107    0.292411    0.080821
 H     -5.593737   -0.008471   -0.275308
 H     -4.373917    2.146970   -0.125629
 H     -0.749647   -4.496888   -0.250892
 Li    -3.586300   -3.848843   -0.352072
 Li    -0.051981    2.395949    0.081568
