21

 C      1.040270   -0.009611    0.022052
 C      0.471193    0.465737    1.332423
 C     -0.145915   -0.427660    2.195431
 C     -0.693278   -0.024771    3.434387
 O     -1.278742   -0.844705    4.263984
 C     -0.564315    1.375691    3.735046
 C      0.061636    2.308197    2.870006
 C      0.584924    1.852135    1.657646
 O      1.181551    2.689062    0.812804
 C      0.171192    3.764621    3.231307
 C     -1.133982    1.689936    4.982307
 N     -1.661987    1.696280    6.025102
 H      0.571666    0.509232   -0.821488
 H      0.890094   -1.083226   -0.106922
 H      2.113967    0.199538   -0.039320
 H     -0.224263   -1.477907    1.933829
 H     -0.323826    4.393084    2.482410
 H     -0.278976    3.979691    4.203004
 H      1.219308    4.082591    3.266102
 Li    -1.951683   -0.315390    5.799111
 Li     1.900328    3.719518   -0.196230
