27

 C      3.660017    0.713495    0.000179
 C      3.657484   -0.706355   -0.000053
 C      2.467292   -1.387227   -0.000165
 C      1.215256   -0.708890   -0.000058
 C      1.216882    0.732673    0.000169
 C      2.473912    1.402020    0.000284
 C      0.000066    1.472313    0.000263
 O      0.009432    2.793966    0.000648
 C     -1.214318    0.748754    0.000153
 C     -1.217672   -0.698151   -0.000071
 C     -0.005153   -1.438800   -0.000159
 O     -0.012806   -2.756595   -0.000552
 C     -2.464176   -1.368729   -0.000193
 C     -3.662358   -0.683565   -0.000098
 C     -3.662184    0.749191    0.000131
 C     -2.473100    1.421442    0.000247
 C     -4.894525   -1.403014   -0.000225
 N     -5.895448   -1.986089   -0.000326
 H      4.603025    1.250173    0.000270
 H      4.597864   -1.247300   -0.000136
 H      2.455071   -2.470098   -0.000334
 H      2.469236    2.484909    0.000454
 H     -2.464602   -2.450592   -0.000361
 H     -4.606336    1.280247    0.000206
 H     -2.465579    2.504155    0.000414
 Li     0.024690    4.409916    0.001112
 Li    -0.089185   -4.375589   -0.001033
