16

 C      2.182597   -0.797714   -0.031756
 C      2.301231    0.634421   -0.046458
 C      1.211243    1.491538   -0.026026
 O      1.184165    2.806747   -0.035689
 C     -0.043598    0.784424    0.011146
 N     -1.226286    1.395703    0.035756
 O     -2.177185    0.380373    0.067906
 C     -1.542960   -0.809123    0.061824
 C     -0.183563   -0.642776    0.026165
 C      0.984854   -1.486973    0.003864
 O      0.865267   -2.808007    0.017958
 H      3.097073   -1.383234   -0.049738
 H      3.294404    1.070984   -0.074976
 H     -2.189532   -1.671153    0.084469
 Li    -0.533994    3.251075    0.002944
 Li     0.956745   -4.419957    0.029146
