30

 C      3.773732    0.743656   -0.025868
 C      3.764829   -0.674150   -0.113454
 C      2.572679   -1.351140   -0.132083
 C      1.320697   -0.674016   -0.066158
 C      1.330187    0.766202    0.022239
 C      2.589652    1.431856    0.039514
 C      0.116914    1.502710    0.092826
 O      0.125124    2.821709    0.182898
 C     -1.101452    0.779134    0.065166
 C     -1.110456   -0.661373   -0.024824
 C      0.098366   -1.398280   -0.085237
 O      0.090246   -2.719709   -0.153959
 C     -2.370755   -1.326567   -0.050310
 C     -3.558958   -0.646070    0.006535
 C     -3.546027    0.776497    0.100369
 C     -2.356007    1.451967    0.127711
 C     -4.883705   -1.388067   -0.055839
 C     -5.680633   -1.282703    1.170673
 N     -6.314406   -1.202404    2.131408
 H      4.718513    1.277034   -0.011449
 H      4.702969   -1.216899   -0.165822
 H      2.560306   -2.432183   -0.200131
 H      2.588104    2.512983    0.105647
 H     -2.363573   -2.408410   -0.120138
 H     -4.484320    1.319679    0.155579
 H     -2.347169    2.532693    0.197412
 H     -5.499882   -1.010042   -0.880666
 H     -4.710814   -2.449584   -0.253228
 Li     0.140849    4.429245    0.329421
 Li     0.177670   -4.331642   -0.173782
