16

 C     -2.285342    0.658462   -0.036558
 C     -2.229083   -0.742379   -0.017218
 C     -1.030613   -1.480859    0.008530
 O     -0.981526   -2.807531    0.026695
 C      0.127154   -0.689531    0.013426
 C      0.088746    0.717003   -0.005750
 C     -1.128432    1.461917   -0.031839
 O     -1.100772    2.775090   -0.048879
 N      1.336125    1.337524    0.002618
 C      2.302637    0.466846    0.027069
 S      1.808799   -1.210614    0.042653
 H     -3.248281    1.157262   -0.055991
 H     -3.156609   -1.307783   -0.022058
 H      3.351803    0.730477    0.037533
 Li    -0.980540   -4.419064    0.047977
 Li     0.611471    3.191865   -0.031598
