21

 C      1.069558    0.163999   -0.023623
 C      0.583668   -0.619675    1.170370
 C      0.893524   -1.978310    1.270030
 C      0.451054   -2.749240    2.384123
 O      0.713915   -4.023721    2.524493
 C     -0.315627   -2.048095    3.369924
 C     -0.625951   -0.677005    3.265241
 C     -0.186442    0.059218    2.172757
 O     -0.471713    1.353918    2.060957
 C     -0.708150   -2.885732    4.429044
 N     -0.909623   -3.759709    5.178112
 C      1.704618   -2.676381    0.206394
 H      0.748345    1.202056    0.045040
 H      0.685488   -0.255063   -0.960385
 H      2.162688    0.144893   -0.096722
 H     -1.209656   -0.187595    4.036401
 H      1.217351   -2.624969   -0.774141
 H      2.696806   -2.224834    0.091465
 H      1.832593   -3.724778    0.472369
 Li     0.158925   -4.957603    3.905472
 Li    -0.884255    2.911197    2.045156
