18

 C      0.956798    0.227734    0.192666
 C      0.548413   -1.048168    0.879009
 C      1.279380   -2.211631    0.695188
 C      0.939147   -3.438363    1.316527
 O      1.617139   -4.540886    1.153053
 C     -0.224278   -3.391335    2.156226
 C     -0.976390   -2.211356    2.350490
 C     -0.610115   -1.027673    1.722923
 O     -1.298139    0.097024    1.886796
 C     -0.503097   -4.639576    2.739353
 N     -0.520045   -5.754487    3.089092
 H      1.163502    1.017653    0.923125
 H      0.153842    0.600784   -0.452595
 H      1.849698    0.079868   -0.417834
 H      2.154188   -2.209825    0.052676
 H     -1.848905   -2.221335    2.993896
 Li     1.157834   -6.043960    1.945420
 Li    -2.153955    1.444708    2.106169
