20

 C     -0.939025    0.848918   -0.867019
 C      0.575413    0.700712   -1.098835
 C      0.925140    0.176196   -2.472518
 C      1.333777    1.054989   -3.480362
 C      1.654888    0.628471   -4.781196
 O      2.041374    1.490615   -5.722349
 C      1.552662   -0.749896   -5.038451
 C      1.151514   -1.639249   -4.044454
 C      0.827061   -1.209386   -2.746339
 O      0.448206   -2.078487   -1.806051
 H     -1.371054    1.563603   -1.573500
 H     -1.156602    1.202443    0.147634
 H     -1.446227   -0.108241   -1.015128
 H      1.056654    1.673604   -0.950139
 H      0.985294    0.024794   -0.339448
 H      1.415023    2.116903   -3.259810
 H      1.796640   -1.113149   -6.032669
 H      1.082416   -2.701715   -4.260891
 Li     2.504808    2.525156   -6.854988
 Li     0.009558   -3.146419   -0.693210
