17

 C     -2.094968   -1.409823    0.037107
 C     -0.851086   -0.558535    0.025854
 C      0.415909   -1.138767    0.127673
 C      1.601649   -0.381630    0.121218
 O      2.798544   -0.962188    0.219941
 C      1.463898    1.012250    0.005973
 C      0.207097    1.605358   -0.096398
 C     -0.974489    0.846243   -0.089555
 O     -2.173836    1.422968   -0.188146
 H     -2.757025   -1.141296    0.869249
 H     -1.846067   -2.470030    0.130666
 H     -2.679568   -1.277570   -0.881382
 H      0.502752   -2.218892    0.216052
 H      2.360603    1.625185   -0.002098
 H      0.120366    2.684657   -0.184749
 Li     4.239676   -1.651879    0.338077
 Li    -3.621491    2.101516   -0.305767
