18

 C      2.898444   -1.438611   -0.281480
 C      1.606360   -1.462547    0.151790
 C      0.561390   -0.461135    0.081518
 C     -0.779777   -0.921603    0.125397
 C     -1.873779   -0.069543    0.000911
 O     -3.129789   -0.511918    0.012889
 C     -1.586378    1.310952   -0.141293
 C     -0.290973    1.796118   -0.138705
 C      0.833898    0.945759   -0.007248
 O      2.045546    1.440896    0.090203
 H      3.252155   -0.656419   -0.954675
 H      3.513544   -2.327625   -0.210913
 H      1.285308   -2.402443    0.603300
 H     -0.967261   -1.987550    0.224995
 H     -2.423016    1.997395   -0.238127
 H     -0.099655    2.861146   -0.217934
 Li    -4.653694   -1.019850    0.006309
 Li     3.372630    0.499984    0.623277
