15

 C     -0.524715    1.390917    0.061346
 C      0.849752    1.250714    0.042367
 C      1.464739   -0.024788   -0.035913
 O      2.756440   -0.204688   -0.056611
 C      0.551167   -1.132578   -0.092382
 C     -0.854080   -0.981089   -0.072514
 C     -1.421580    0.287300    0.004930
 O     -2.735031    0.479055    0.026518
 C      1.229649   -2.363066   -0.168525
 N      2.008718   -3.231550   -0.224661
 H     -0.961610    2.383588    0.121949
 H      1.497292    2.119606    0.087232
 H     -1.496128   -1.853416   -0.117580
 Li     3.482300   -1.803214   -0.154343
 Li    -4.328517    0.715829    0.052924
