22

 C     -2.484589    0.610191   -0.327896
 C     -1.299878    1.413366    0.227967
 C      0.027870    0.708416    0.047242
 C      0.053469   -0.704184    0.102903
 C     -1.209395   -1.421542    0.271411
 C     -2.404265   -0.836113    0.090723
 C      1.276278   -1.415949    0.002696
 O      1.318155   -2.745058    0.041820
 C      2.452414   -0.660580   -0.152582
 C      2.422735    0.727002   -0.200551
 C      1.216937    1.447746   -0.089316
 O      1.217060    2.781905   -0.100766
 H     -2.483481    0.667425   -1.428085
 H     -3.429223    1.058475   -0.001170
 H     -1.255035    2.400454   -0.239729
 H     -1.465975    1.588338    1.303106
 H     -1.148239   -2.473501    0.528860
 H     -3.322684   -1.406653    0.195985
 H      3.395827   -1.192129   -0.235618
 H      3.344525    1.289684   -0.317457
 Li     1.393654   -4.348955    0.038834
 Li     1.236529    4.385388   -0.078518
