21

 C      1.230312    0.152511    0.005806
 C      0.647530    1.546613    0.040501
 C     -0.749995    1.765592   -0.180003
 C     -1.299373    3.093682   -0.163407
 O     -2.545732    3.351522   -0.481965
 C     -0.411128    4.148565    0.150276
 C      0.925733    3.916992    0.397835
 C      1.495771    2.622962    0.340311
 O      2.801012    2.467996    0.575227
 C     -1.584898    0.612706   -0.467137
 C     -2.907293    0.386449   -0.226489
 H      1.168510   -0.299834   -0.992508
 H      0.722812   -0.526699    0.699184
 H      2.283278    0.192799    0.282222
 H     -0.818506    5.153582    0.174947
 H      1.586635    4.745574    0.637082
 H     -1.064105   -0.222519   -0.932350
 H     -3.342931   -0.580974   -0.447774
 H     -3.483068    1.040800    0.429804
 Li    -3.625982    2.220618   -1.157996
 Li     4.378151    2.445742    0.883277
