14

 C      1.472060   -0.260358    0.026249
 C      0.430738   -1.347776    0.013595
 C     -0.904994   -1.080273   -0.007004
 C     -1.425157    0.251282   -0.018363
 O     -2.726404    0.481078   -0.038269
 C     -0.480380    1.324132   -0.007232
 C      0.866181    1.117951    0.013361
 H      2.160528   -0.382022   -0.830548
 H      2.134428   -0.377248    0.904039
 H      0.775780   -2.377130    0.021482
 H     -1.621775   -1.897240   -0.015481
 H     -0.873982    2.337189   -0.015883
 H      1.542922    1.966861    0.021069
 Li    -4.317199    0.762007   -0.062579
