20

 C      2.173683   -0.693625   -0.360961
 C      2.185343    0.644514    0.361256
 O      1.055967    1.424976   -0.032041
 C     -0.167103    0.689107   -0.008489
 C     -0.178835   -0.698628    0.009113
 O      1.031756   -1.454864    0.033754
 C     -1.372094   -1.452221    0.038702
 O     -1.316486   -2.775848    0.086336
 C     -2.552496   -0.682422    0.020018
 C     -2.540683    0.712846   -0.022005
 C     -1.347453    1.462651   -0.039503
 O     -1.269536    2.785151   -0.087236
 H      2.148773   -0.532845   -1.445296
 H      3.059070   -1.276864   -0.099276
 H      2.159033    0.484085    1.445613
 H      3.080098    1.212824    0.098568
 H     -3.495385   -1.218316    0.038686
 H     -3.474375    1.264567   -0.041716
 Li     0.338445   -3.250350    0.123269
 Li     0.393069    3.232187   -0.121292
