19

 C      0.265598   -0.848154   -0.012392
 C     -0.723497    0.176789    0.085487
 C     -0.358937    1.529978    0.180135
 C      1.024289    1.828834    0.181358
 C      2.001897    0.809590    0.087666
 C      1.650059   -0.546648   -0.021431
 C     -0.430619   -2.106265   -0.106172
 C     -1.798056   -1.875970   -0.060338
 C     -2.040954   -0.465695    0.064041
 H      1.339023    2.843210    0.441633
 H      3.055324    1.066721    0.126485
 H      0.048723   -3.071900   -0.197434
 O     -1.265573    2.561265    0.144739
 O      2.566584   -1.497407   -0.112778
 O     -3.181725    0.136718    0.165911
 H     -2.583524   -2.618714   -0.096524
 Li    -0.163496    3.133247   -1.113503
 Li     3.473587   -2.828432   -0.172945
 Li    -2.916753    1.874218    0.416516
