23

 C      0.937935    0.053088   -0.005433
 C      0.437041    0.155537    1.412631
 C      0.271382    1.421745    2.019532
 C     -0.184654    1.591326    3.319137
 O     -0.329829    2.795699    3.861349
 C     -0.499025    0.407036    4.069261
 C     -0.971262    0.479871    5.403398
 C     -1.273824   -0.652548    6.126197
 C     -1.114058   -1.926559    5.534992
 C     -0.657134   -2.031315    4.240275
 C     -0.336371   -0.885771    3.467832
 C      0.139146   -1.009558    2.118764
 O      0.288957   -2.208599    1.563911
 H      1.128176    1.042512   -0.428634
 H      0.213452   -0.457928   -0.651331
 H      1.869007   -0.524083   -0.061763
 H      0.510648    2.314525    1.447549
 H     -1.089978    1.461619    5.846634
 H     -1.634002   -0.570406    7.146727
 H     -1.352180   -2.819956    6.103612
 H     -0.532133   -3.004360    3.780372
 Li    -0.493361    4.267188    4.484965
 Li     0.492204   -3.626140    0.834364
