29

 C      0.989449   -0.116885    0.002141
 C      0.679741    0.715329   -1.217653
 C      0.876084    2.073095   -1.241432
 C      0.589371    2.877148   -2.385264
 C      0.070971    2.227309   -3.563729
 C     -0.123485    0.816481   -3.512148
 C      0.165684    0.084698   -2.391995
 C     -0.235429    2.966017   -4.735112
 O     -0.710927    2.366224   -5.814722
 C     -0.016605    4.368499   -4.714825
 C     -0.302876    5.171369   -5.856937
 C     -0.099426    6.527127   -5.859962
 C      0.411595    7.168942   -4.698768
 C      0.699457    6.431153   -3.579722
 C      0.502482    5.020028   -3.535135
 C      0.808300    4.277991   -2.363982
 O      1.284024    4.878265   -1.283874
 H      0.097558   -0.638782    0.367693
 H      1.372727    0.500949    0.817897
 H      1.739889   -0.885099   -0.217358
 H      1.265280    2.576274   -0.363140
 H     -0.512982    0.326926   -4.396938
 H      0.004341   -0.989754   -2.389814
 H     -0.692030    4.674847   -6.737917
 H     -0.326673    7.112814   -6.744750
 H      0.572308    8.242180   -4.702118
 H      1.089115    6.914449   -2.691733
 Li    -1.290002    1.648722   -7.134974
 Li     1.862218    5.611176    0.027466
