20

 C      1.068667    0.212304    0.110439
 C      0.690928   -0.962607    0.975655
 C      0.009002   -0.789614    2.188431
 C     -0.387522   -1.833158    3.065310
 O     -1.052809   -1.628272    4.193086
 C     -0.012620   -3.098471    2.612566
 C      0.661657   -3.256622    1.426094
 C      1.047423   -2.266910    0.528911
 O      1.669506   -2.577828   -0.601148
 O      0.856980   -4.648161    1.176193
 C      0.600003   -5.232043    2.475045
 O     -0.284786   -4.367990    3.154608
 H      0.751928    1.154430    0.564503
 H      0.612887    0.134997   -0.882356
 H      2.150839    0.251737   -0.052827
 H     -0.244794    0.219341    2.501558
 H      0.137388   -6.209502    2.345318
 H      1.557997   -5.293481    3.011908
 Li    -1.888567   -1.550631    5.564882
 Li     1.725491   -4.330431   -0.542053
