20

 C      0.850559   -0.008073    0.107008
 C      0.549189   -1.435770   -0.270320
 C      1.259735   -2.497331    0.294279
 C      1.010322   -3.841014   -0.029884
 O      1.709855   -4.830083    0.529812
 C     -0.008008   -4.113838   -0.970905
 C     -0.718555   -3.052277   -1.535503
 C     -0.469201   -1.708599   -1.211274
 O     -1.168614   -0.719521   -1.771102
 C     -0.309319   -5.541531   -1.348298
 H     -0.028642    0.488560    0.535413
 H      1.149004    0.584120   -0.766724
 H      1.658567    0.042682    0.841488
 H      2.043935   -2.290998    1.018554
 H     -1.502710   -3.258607   -2.259827
 H     -1.117262   -5.592281   -2.082850
 H      0.569929   -6.038135   -1.776637
 H     -0.607831   -6.133753   -0.474608
 Li     2.527288   -6.046274    1.179430
 Li    -1.985901    0.496683   -2.420882
