17

 C      0.994470   -0.002705   -0.010729
 C      0.572869    0.247333   -1.378659
 C      0.222725    0.461369   -2.513923
 C     -0.186829    0.742864   -3.839498
 C     -0.444336   -0.220939   -4.756283
 C     -0.869851    0.090048   -6.132393
 O     -1.097247   -0.794982   -6.944701
 C     -1.014005    1.521198   -6.501557
 C     -0.765987    2.492775   -5.615318
 C     -0.336776    2.197000   -4.226317
 O     -0.116161    3.093555   -3.435994
 H      0.233148   -0.569306    0.533660
 H      1.166122    0.936755    0.521273
 H      1.921743   -0.582837    0.011417
 H     -0.347352   -1.272730   -4.514280
 H     -1.328278    1.722114   -7.519850
 H     -0.862764    3.545636   -5.856438
