19

 C      0.946250    0.115269    0.221334
 C      0.378461    1.208202    0.723586
 C     -1.101005    1.509704    0.643184
 C     -1.751268    1.595774    2.002902
 C     -2.572172    0.648848    2.491292
 C     -3.189118    0.738517    3.832964
 O     -3.932212   -0.135142    4.252105
 C     -2.870688    1.933309    4.655557
 C     -2.062059    2.891914    4.188561
 C     -1.455220    2.805850    2.836791
 O     -0.741882    3.702863    2.416984
 H      0.367179   -0.650724   -0.286057
 H      2.015280   -0.049326    0.294399
 H      0.986175    1.958612    1.220977
 H     -1.236265    2.471403    0.135546
 H     -1.604794    0.740889    0.052753
 H     -2.823660   -0.240416    1.922185
 H     -3.329137    1.975595    5.637363
 H     -1.810826    3.779079    4.759453
