15

 C     -2.122333   -1.441211    0.038620
 C     -0.851141   -0.649595    0.033049
 C      0.375528   -1.193991    0.130234
 C      1.613766   -0.384990    0.122082
 O      2.715245   -0.904793    0.211405
 C      1.470180    1.088525    0.000784
 C      0.261358    1.654050   -0.097555
 C     -0.980048    0.839995   -0.089519
 O     -2.074370    1.371519   -0.180359
 H     -2.766719   -1.126531    0.864168
 H     -1.919210   -2.508658    0.130285
 H     -2.690343   -1.261436   -0.878296
 H      0.520795   -2.265724    0.220435
 H      2.391050    1.661221   -0.002723
 H      0.118963    2.725369   -0.187697
