19

 C      1.043412   -0.091120    0.347928
 C      0.554331    1.270451   -0.035488
 C     -0.593092    1.495252   -0.697612
 C     -1.060968    2.843840   -1.067909
 O     -2.102965    3.021187   -1.667127
 C     -0.181362    4.005971   -0.666981
 C      0.975434    3.791950   -0.000436
 C      1.417303    2.440784    0.355472
 O      2.465143    2.254582    0.958798
 O     -0.684612    5.182085   -1.043464
 C      0.048654    6.366758   -0.726648
 H      0.348962   -0.865009    0.019165
 H      1.173057   -0.160344    1.431504
 H      2.027753   -0.281431   -0.088607
 H     -1.250110    0.687208   -1.001946
 H      1.636664    4.591228    0.306994
 H      0.160181    6.475310    0.356142
 H      1.034395    6.350553   -1.200677
 H     -0.539842    7.190816   -1.123148
