21

 C      0.908030   -0.134637   -0.000058
 C      0.510930    1.239303    0.462995
 C      1.067560    2.365269   -0.044542
 C      0.655697    3.739458    0.427327
 O      1.128620    4.760623   -0.038129
 C     -0.359171    3.749562    1.481896
 C     -0.908756    2.636090    1.984719
 C     -0.554257    1.290024    1.532478
 O     -1.081306    0.287434    1.979816
 O     -1.869766    2.937061    2.904122
 C     -1.731189    4.357191    3.112451
 O     -0.918752    4.863674    2.034150
 C      2.126138    2.330055   -1.111286
 H      0.746848   -0.247551   -1.076716
 H      0.328259   -0.895161    0.520268
 H      1.971215   -0.318667    0.185378
 H     -2.712511    4.827564    3.081388
 H     -1.217436    4.533362    4.064137
 H      2.999614    1.760388   -0.778805
 H      1.752570    1.843118   -2.017826
 H      2.444263    3.339390   -1.366903
