26

 C      0.033567    1.751701    0.707490
 C     -0.979363    1.153473    0.448210
 C     -2.069465    0.294065    0.118728
 C     -3.425568    0.702161    0.054945
 C     -4.411495   -0.247931   -0.283613
 C     -4.064808   -1.572591   -0.553258
 C     -2.735211   -1.970053   -0.490060
 C     -1.751412   -1.048123   -0.158389
 C     -5.861915    0.114517   -0.369245
 O     -6.699848   -0.722288   -0.663974
 C     -6.241495    1.522446   -0.083711
 C     -7.587496    1.897621   -0.153893
 C     -7.958814    3.209679    0.110102
 C     -6.987717    4.157848    0.446494
 C     -5.649117    3.792126    0.518018
 C     -5.265800    2.473112    0.253814
 C     -3.816017    2.116015    0.340438
 O     -2.991480    2.962558    0.635703
 H      0.892260    2.331062    0.944132
 H     -4.853551   -2.268563   -0.809084
 H     -2.461893   -2.997942   -0.698765
 H     -0.712789   -1.350529   -0.107154
 H     -8.320828    1.145281   -0.416452
 H     -9.002277    3.498393    0.055200
 H     -7.279028    5.181619    0.652290
 H     -4.881651    4.510821    0.776685
