25

 C      3.694369    0.702995    0.000435
 C      3.690079   -0.694705    0.000124
 C      2.486177   -1.389060   -0.000302
 C      1.273774   -0.692598   -0.000429
 C      1.277976    0.715008   -0.000112
 C      2.494589    1.404358    0.000321
 C      0.007613    1.493202   -0.000255
 O      0.002136    2.712180    0.000463
 C     -1.273915    0.721120   -0.000168
 C     -1.277391   -0.683489   -0.000478
 C     -0.000901   -1.464320   -0.000936
 O     -0.012141   -2.682775   -0.000649
 C     -2.487627   -1.377087   -0.000402
 C     -3.693836   -0.672307   -0.000028
 C     -3.689710    0.734025    0.000277
 C     -2.485569    1.419573    0.000206
 C     -4.938501   -1.380592    0.000048
 N     -5.946624   -1.944453    0.000112
 H      4.634903    1.241841    0.000768
 H      4.627281   -1.239362    0.000212
 H      2.460166   -2.471716   -0.000556
 H      2.474986    2.487163    0.000553
 H     -2.472568   -2.459547   -0.000651
 H     -4.630028    1.271275    0.000566
 H     -2.459130    2.502070    0.000432
