14

 C      2.202507   -0.677150   -0.037631
 C      2.188646    0.665527   -0.037068
 C      0.932734    1.470592   -0.005590
 O      0.927258    2.683115   -0.007137
 C     -0.287614    0.631993    0.024460
 C     -0.289941   -0.733868    0.024769
 C      0.958795   -1.508596   -0.007803
 O      1.003078   -2.724443   -0.010640
 C     -1.674362   -1.062331    0.059468
 N     -2.418001    0.013517    0.078042
 O     -1.531375    1.104690    0.055095
 H      3.130842   -1.237354   -0.060725
 H      3.103265    1.247612   -0.059576
 H     -2.145131   -2.034364    0.071646
