18

 C      1.058541    0.081650    0.057687
 C      0.661560   -0.999776    1.015496
 C      0.002897   -0.771403    2.166276
 C     -0.400237   -1.837387    3.127841
 O     -1.015436   -1.595667    4.150187
 C      0.007700   -3.188261    2.722830
 C      0.665759   -3.441489    1.580102
 C      1.044590   -2.409026    0.613936
 O      1.615833   -2.647560   -0.433480
 O      0.865171   -4.781838    1.420852
 C      0.472096   -5.355352    2.682973
 O     -0.268203   -4.340246    3.393073
 H      0.741669    1.059817    0.420381
 H      0.617716   -0.095344   -0.927205
 H      2.142340    0.088249   -0.088459
 H     -0.281508    0.231452    2.466371
 H     -0.168621   -6.217960    2.508567
 H      1.368233   -5.613788    3.257882
